Version 4
SHEET 1 2716 680
WIRE -48 -816 -112 -816
WIRE 16 -816 -48 -816
WIRE 304 -816 16 -816
WIRE 16 -800 16 -816
WIRE -112 -768 -112 -816
WIRE 304 -720 304 -816
WIRE 16 -704 16 -720
WIRE 112 -704 16 -704
WIRE 16 -688 16 -704
WIRE -112 -592 -112 -688
WIRE 16 -592 16 -608
WIRE 16 -592 -112 -592
WIRE 304 -592 304 -640
WIRE -112 -576 -112 -592
WIRE 1728 -448 1728 -464
WIRE 1728 -384 1728 -448
WIRE 592 -368 528 -368
WIRE 752 -368 672 -368
WIRE 1472 -336 1424 -336
WIRE 1632 -336 1536 -336
WIRE 752 -288 752 -368
WIRE 864 -288 752 -288
WIRE 912 -288 864 -288
WIRE 1120 -272 1120 -304
WIRE 1728 -272 1728 -304
WIRE 752 -256 752 -288
WIRE 864 -256 864 -288
WIRE 912 -224 912 -288
WIRE 976 -224 912 -224
WIRE 1040 -224 976 -224
WIRE 1248 -224 1200 -224
WIRE 304 -208 272 -208
WIRE 528 -208 528 -368
WIRE 528 -208 304 -208
WIRE 688 -208 528 -208
WIRE 992 -176 912 -176
WIRE 1040 -176 992 -176
WIRE 1280 -176 1216 -176
WIRE 1424 -176 1424 -336
WIRE 1424 -176 1360 -176
WIRE 1488 -176 1424 -176
WIRE 864 -160 864 -192
WIRE 1632 -160 1632 -336
WIRE 1632 -160 1552 -160
WIRE 1680 -160 1632 -160
WIRE 1728 -160 1728 -208
WIRE 1728 -160 1680 -160
WIRE 272 -144 272 -208
WIRE 1488 -144 1440 -144
WIRE 1040 -128 1024 -128
WIRE 752 -112 752 -144
WIRE 864 -112 752 -112
WIRE 912 -112 912 -176
WIRE 912 -112 864 -112
WIRE 1728 -112 1728 -160
WIRE 864 -96 864 -112
WIRE 1024 -96 1024 -128
WIRE 1120 -96 1120 -128
WIRE 1440 -96 1440 -144
WIRE 528 -64 528 -208
WIRE 576 -64 528 -64
WIRE 752 -64 752 -112
WIRE 752 -64 656 -64
WIRE 272 0 272 -64
WIRE 864 0 864 -32
WIRE 1728 0 1728 -48
WIRE 1440 16 1440 -16
WIRE 1728 128 1728 80
FLAG 1024 -96 0
FLAG 1120 -304 0
FLAG 272 0 0
FLAG 304 -208 CLKIN
FLAG 992 -176 CLK
FLAG 976 -224 D
FLAG 1248 -224 Q
FLAG 1120 -96 0
FLAG -112 -576 0
FLAG -48 -816 Vcc
FLAG 1520 -192 Vcc
FLAG 1520 -128 0
FLAG 112 -704 vcc_div_2
FLAG 1440 16 0
FLAG 1680 -160 Vtrim
FLAG 304 -592 0
FLAG 864 0 0
FLAG 864 -160 0
FLAG 1728 -448 Vcc
FLAG 1728 128 0
SYMBOL voltage 272 -160 R0
WINDOW 123 0 0 Left 0
WINDOW 39 0 0 Left 0
WINDOW 3 -194 -107 Left 2
SYMATTR Value PULSE(0 5 0 5n 5n 50u 100u)
SYMATTR InstName V1
SYMBOL voltage -112 -784 R0
WINDOW 123 0 0 Left 0
WINDOW 39 0 0 Left 0
SYMATTR InstName V3
SYMATTR Value 5
SYMBOL res 1376 -192 R90
WINDOW 0 0 56 VBottom 2
WINDOW 3 32 56 VTop 2
SYMATTR InstName R1
SYMATTR Value 10k
SYMBOL cap 1536 -352 R90
WINDOW 0 0 32 VBottom 2
WINDOW 3 32 32 VTop 2
SYMATTR InstName C2
SYMATTR Value 1µ
SYMBOL res 0 -816 R0
SYMATTR InstName R2
SYMATTR Value 1k
SYMBOL res 0 -704 R0
SYMATTR InstName R3
SYMATTR Value 1k
SYMBOL voltage 1440 -112 R0
WINDOW 123 0 0 Left 0
WINDOW 39 0 0 Left 0
SYMATTR InstName V2
SYMATTR Value 2.5
SYMBOL res 288 -736 R0
SYMATTR InstName R5
SYMATTR Value R={0.1/I(D1)}
SYMBOL cap 848 -96 R0
SYMATTR InstName C1
SYMATTR Value 3.5p
SYMBOL cap 848 -256 R0
SYMATTR InstName C3
SYMATTR Value 3.5p
SYMBOL diode 1712 -112 R0
SYMATTR InstName D1
SYMATTR Value 1N4148
SYMBOL diode 1712 -272 R0
SYMATTR InstName D2
SYMATTR Value 1N4148
SYMBOL res 1712 -16 R0
SYMATTR InstName R6
SYMATTR Value 1k
SYMBOL res 1712 -400 R0
SYMATTR InstName R7
SYMATTR Value 1k
SYMBOL potentiometer 736 -240 R0
WINDOW 39 48 -42 VRight 2
SYMATTR SpiceLine R=1k, Val=50
SYMATTR InstName X1
SYMBOL res 576 -352 R270
WINDOW 0 32 56 VTop 2
WINDOW 3 86 62 VBottom 2
SYMATTR InstName R4
SYMATTR Value R={1.0/(0.0006+0.425*I(D2))}
SYMBOL res 560 -48 R270
WINDOW 0 32 56 VTop 2
WINDOW 3 0 56 VBottom 2
SYMATTR InstName R8
SYMATTR Value R={1.0/(0.0006+0.425*I(D1))}
SYMBOL Digital\\dflop 1120 -272 R0
SYMATTR InstName A2
SYMATTR SpiceLine Vhigh=5 Tfall=5n Trise=5n Td=12n ref=2.5
SYMATTR SpiceLine2 rhigh=1 rlow=1
SYMBOL OpAmps\\LT1638 1520 -224 R0
SYMATTR InstName U2
TEXT 192 56 Left 2 !.tran 100m startup
TEXT 568 -320 Left 3 ;CdS Cell
TEXT 568 -120 Left 3 ;CdS Cell
TEXT 1840 -240 Left 3 ;Red LED
TEXT 1832 -72 Left 3 ;Red LED
TEXT 1224 -560 Left 2 ;Cyanoacrylate Glue
TEXT 1272 176 Left 2 ;Cyanoacrylate Glue
TEXT 384 -776 Left 2 ;Double-check variable resistor operation
TEXT 1328 -408 Left 2 ;Error Integrator
TEXT 2000 -176 Left 2 ;Yeah, yeah, probably only need one.\nBut I like the symmetry here :)
LINE Normal 2032 -240 1984 -240 2
LINE Normal 2032 -528 2032 -240 2
LINE Normal 656 -528 2032 -528 2
LINE Normal 656 -448 656 -528 2
LINE Normal 2016 -64 1968 -64 2
LINE Normal 2016 192 2016 -64 2
LINE Normal 656 192 2016 192 2
LINE Normal 656 16 656 192 2
