Version 4
SHEET 1 2312 680
WIRE 1024 -368 944 -368
WIRE 1120 -368 1024 -368
WIRE 1024 -352 1024 -368
WIRE 944 -272 944 -368
WIRE 1328 -272 1328 -320
WIRE 1024 -256 1024 -288
WIRE 672 -224 592 -224
WIRE 880 -224 672 -224
WIRE 1120 -224 1120 -368
WIRE 1184 -224 1120 -224
WIRE 1248 -224 1184 -224
WIRE 1504 -224 1408 -224
WIRE 1568 -224 1504 -224
WIRE 592 -176 592 -224
WIRE 1152 -176 1120 -176
WIRE 1248 -176 1152 -176
WIRE 1248 -128 1200 -128
WIRE 944 -64 944 -160
WIRE 1024 -64 944 -64
WIRE 1120 -64 1120 -176
WIRE 1120 -64 1024 -64
WIRE 1200 -64 1200 -128
WIRE 1024 -48 1024 -64
WIRE 592 -32 592 -96
WIRE 1328 -16 1328 -128
WIRE 1024 48 1024 16
WIRE 1328 128 1328 64
FLAG 1200 -64 0
FLAG 1328 -320 0
FLAG 592 -32 0
FLAG 672 -224 CLKIN
FLAG 1152 -176 CLK
FLAG 1184 -224 D
FLAG 1504 -224 Q
FLAG 1024 48 0
FLAG 1024 -256 0
FLAG 1328 128 0
SYMBOL Digital\\dflop 1328 -272 R0
SYMATTR InstName A1
SYMATTR SpiceLine Vhigh 5 Trise 1u Tfall 1u TRISE 4n TD 12n REF 2.5
SYMATTR SpiceLine2 rhigh 1 rlow 1
SYMBOL voltage 592 -192 R0
WINDOW 123 0 0 Left 0
WINDOW 39 0 0 Left 0
SYMATTR InstName V1
SYMATTR Value PULSE(0 5 0 5n 5n 5u 10u)
SYMBOL potentiometer 928 -256 R0
WINDOW 39 -252 -36 Left 2
WINDOW 0 26 -31 Left 2
SYMATTR SpiceLine R=1k, Val={position}
SYMATTR InstName X1
SYMBOL cap 1008 -48 R0
SYMATTR InstName C1
SYMATTR Value 3.4p
SYMBOL cap 1008 -352 R0
SYMATTR InstName C3
SYMATTR Value 3.6p
SYMBOL voltage 1328 -32 R0
WINDOW 123 0 0 Left 0
WINDOW 39 0 0 Left 0
SYMATTR InstName V2
SYMATTR Value PWL(0 5 22.4u 5 22.6u 0)
TEXT 560 24 Left 2 !.tran 100u startup
TEXT 632 184 Left 2 !.step param position list 20 30 40 50 60 70 80
TEXT 632 112 Left 2 ;.param position=25
