Version 4
SHEET 1 880 680
WIRE 112 96 -208 96
WIRE 192 96 112 96
WIRE 368 96 288 96
WIRE 432 96 368 96
WIRE 112 144 -64 144
WIRE 192 144 112 144
WIRE 368 144 304 144
WIRE 432 144 368 144
WIRE -208 160 -208 96
WIRE -64 160 -64 144
WIRE 192 176 176 176
WIRE 176 208 176 176
WIRE -208 256 -208 240
WIRE -64 256 -64 240
FLAG 176 208 0
FLAG -208 256 0
FLAG -64 256 0
FLAG 368 96 q
FLAG 368 144 qbar
FLAG 112 96 s
FLAG 112 144 r
SYMBOL Digital\\srflop 240 48 R0
SYMATTR InstName A1
SYMBOL voltage -208 144 R0
WINDOW 3 -62 -79 VRight 2
WINDOW 123 0 0 Left 2
WINDOW 39 0 0 Left 2
SYMATTR InstName V1
SYMATTR Value PULSE(0 1 0 0 0 10u 100u)
SYMBOL voltage -64 144 R0
WINDOW 3 -62 -79 VRight 2
WINDOW 123 0 0 Left 2
WINDOW 39 0 0 Left 2
SYMATTR InstName V2
SYMATTR Value PULSE(0 1 50u 0 0 10u 100u)
TEXT -286 440 Left 2 !.tran 500u
